 CRYSTAL
 PRIMVEC
     4.42764957    2.21382478    2.21382478
     2.21382478    4.42764957    2.21382478
     2.21382478    2.21382478    4.42764957
 PRIMCOORD
   4 1
    25   0.00000000    0.00000000    0.00000000
    25   4.42764957    4.42764957    4.42764957
     8   2.21382478    2.21382478    2.21382478
     8   6.64147435    6.64147435    6.64148026
