 CRYSTAL
 PRIMVEC
     3.60000000    0.00000000    0.00000000
     0.00000000    3.60000000    0.00000000
     0.00000000    0.00000000    3.60000000
 PRIMCOORD
   8 1
     6   0.00000000    0.00000000    0.00000000
     6   0.90000000    0.90000000    0.90000000
     6   0.00000000    1.80000000    1.80000000
     6   0.90000000    2.70000000    2.70000000
     6   1.80000000    1.80000000    0.00000000
     6   2.70000000    2.70000000    0.90000000
     6   1.80000000    0.00000000    1.80000000
     6   2.70000000    0.90000000    2.70000000
